/*--------------------------------*- C++ -*----------------------------------*\
| =========                 |                                                 |
| \\      /  F ield         | OpenFOAM: The Open Source CFD Toolbox           |
|  \\    /   O peration     | Version:  2.1.1                                 |
|   \\  /    A nd           | Web:      www.OpenFOAM.org                      |
|    \\/     M anipulation  |                                                 |
\*---------------------------------------------------------------------------*/
FoamFile
{
    version     2.0;
    format      ascii;
    class       dictionary;
    location    "constant";
    object      dsmcProperties;
}
// * * * * * * * * * * * * * * * * * * * * * * * * * * * * * * * * * * * * * //


// General Properties
// ~~~~~~~~~~~~~~~~~~

nEquivalentParticles            1;


// Wall Interaction Model
// ~~~~~~~~~~~~~~~~~~~~~~

WallInteractionModel            SpecularReflection;


// Binary Collision Model
// ~~~~~~~~~~~~~~~~~~~~~~

BinaryCollisionModel            none;


// Inflow Boundary Model
// ~~~~~~~~~~~~~~~~~~~~~

InflowBoundaryModel             FreeStream;

FreeStreamCoeffs
{
    numberDensities
    {
        Electron      5.0e8;
       // Ar            1.0e20;
    };
}


// Molecular species
// ~~~~~~~~~~~~~~~~~

typeIdList                      (Electron /*Ar*/);

moleculeProperties
{
    Electron
    {
        mass                            9.11e-31;
        diameter                        1e-10;
        internalDegreesOfFreedom        0;
        omega                           0;
	charge				-1.6e-19;
    }

   /* Ar
    {
        mass                            66.3e-27;
        diameter                        4.17e-10;
        internalDegreesOfFreedom        0;
        omega                           0.81;
	charge				1.6e-19;
    }*/
}


// ************************************************************************* //
