/*--------------------------------*- C++ -*----------------------------------*\
| =========                 |                                                 |
| \\      /  F ield         | OpenFOAM: The Open Source CFD Toolbox           |
|  \\    /   O peration     | Version:  2.1.1                                 |
|   \\  /    A nd           | Web:      www.OpenFOAM.org                      |
|    \\/     M anipulation  |                                                 |
\*---------------------------------------------------------------------------*/
FoamFile
{
    version     2.0;
    format      ascii;
    class       dictionary;
    object      blockMeshDict;
}
// * * * * * * * * * * * * * * * * * * * * * * * * * * * * * * * * * * * * * //

convertToMeters 1;

vertices
(
    (-0.16 -0.16  -0.08)
    ( 0.16 -0.16  -0.08)
    ( 0.16  0.16  -0.08)
    (-0.16  0.16  -0.08)
    (-0.16 -0.16   0.24)
    ( 0.16 -0.16   0.24)
    ( 0.16  0.16   0.24)
    (-0.16  0.16   0.24)
);

blocks
(
    hex (0 1 2 3 4 5 6 7) (45 45 45) simpleGrading (1 1 1)
);

edges
(
);

boundary
(
    maxY
    {
        type wall;
        faces
        (
            (3 7 6 2)
        );
    }
    minX
    {
        type wall;
        faces
        (
            (0 4 7 3)
        );
    }
    maxX
    {
        type wall;
        faces
        (
            (2 6 5 1)
        );
    }
    minY
    {
        type wall;
        faces
        (
            (1 5 4 0)
        );
    }
    minZ
    {
        type wall;
        faces
        (
            (0 3 2 1)
        );
    }
    maxZ
    {
        type wall;
        faces
        (
            (4 5 6 7)
        );
    }
);

mergePatchPairs
(
);

// ************************************************************************* //
